
**** 10/29/22 23:19:09 ******* PSpice 17.4.0 (Nov 2018) ******* ID# 0 ********

 ** Profile: "SCHEMATIC1-lab1"  [ D:\MDDT\LAB2\lab1-pspicefiles\schematic1\lab1.sim ] 


 ****     CIRCUIT DESCRIPTION


******************************************************************************




** Creating circuit file "lab1.cir" 
** WARNING: THIS AUTOMATICALLY GENERATED FILE MAY BE OVERWRITTEN BY SUBSEQUENT SIMULATIONS

*Libraries: 
* Profile Libraries :
* Local Libraries :
.LIB "../../../lab1-PSpiceFiles/PSpiceModelApps/PSpiceModelApps_Include.lib" 
* From [PSPICE NETLIST] section of C:\cds_spb_home\cdssetup\OrCAD_PSpiceTIPSpice_Install\17.4.0\PSpice.ini file:
.lib "nom_pspti.lib" 
.lib "nom.lib" 

*Analysis directives: 
.OPTIONS ADVCONV
.OPTIONS FILEMODELSEARCH
.PROBE64 V(alias(*)) I(alias(*)) W(alias(*)) D(alias(*)) NOISE(alias(*)) 
.INC "..\SCHEMATIC1.net" 



**** INCLUDING SCHEMATIC1.net ****
* source LAB1
V_V1         N02574 N02599 8Vdc
R_RL         N02599 N02581  1.5k TC=0,0 
R_RS         N02574 N02581  200 TC=0,0 
D_D1         N02599 N02581 Dbreak 

**** RESUMING lab1.cir ****
.END

ERROR(ORPSIM-15142): Node N02574 is floating

ERROR(ORPSIM-15142): Node N02599 is floating

ERROR(ORPSIM-15142): Node N02581 is floating
